data/TasNetworks - TasNetworks sourcebus_22000.trafo_75616217_75616217/Lines.dss
New Line.line_75611084_3107391_3104154 Units=km Length=0.041700000762939456 bus1=3104154.1.2 bus2=3107391.1.2 switch=n enabled=y phases=2 Linecode=2P_Code13
New Line.line_75611085_3107391_3104154 Units=km Length=0.041700000762939456 bus1=3104154.1.2 bus2=3107391.1.2 switch=n enabled=y phases=2 Linecode=2P_Code13
New Line.line_75611210_3107442_3107235 Units=km Length=0.041700000762939456 bus1=3107235.1.2.3 bus2=3107442.1.2.3 switch=n enabled=y phases=3 Linecode=3P_Code10
New Line.line_75611211_3106688_3107235 Units=km Length=0.02929999923706055 bus1=3107235.1.2.3 bus2=3106688.1.2.3 switch=n enabled=y phases=3 Linecode=3P_Code9
New Line.line_75611220_3107448_3107235 Units=km Length=0.03279999923706055 bus1=3107235.1.2.3 bus2=3107448.1.2.3 switch=n enabled=y phases=3 Linecode=3P_Code9
New Line.line_75611236_3107235_3102500 Units=km Length=0.030700000762939453 bus1=3102500.1.2.3 bus2=3107235.1.2.3 switch=n enabled=y phases=3 Linecode=3P_Code9
New Line.line_75611262_3107462_3103692 Units=km Length=0.030899999618530273 bus1=3103692.1.2.3 bus2=3107462.1.2.3 switch=n enabled=y phases=3 Linecode=3P_Code6
New Line.line_75611280_3107472_3102219 Units=km Length=0.0335 bus1=3102219.2 bus2=3107472.2 switch=n enabled=y phases=1 Linecode=1P_Code3
New Line.line_75611367_3107340_3106688 Units=km Length=0.05479999923706055 bus1=3106688.1.2.3 bus2=3107340.1.2.3 switch=n enabled=y phases=3 Linecode=3P_Code9
New Line.line_75611368_3107524_3107340 Units=km Length=0.010199999809265137 bus1=3107340.1.2.3 bus2=3107524.1.2.3 switch=n enabled=y phases=3 Linecode=3P_Code9
New Line.line_75611399_3104654_3102219 Units=km Length=0.018000000000000002 bus1=3102219.2 bus2=3104654.2 switch=n enabled=y phases=1 Linecode=1P_Code5
New Line.line_75611411_3103677_3102231 Units=km Length=0.07669999694824219 bus1=3102231.1.2.3 bus2=3103677.1.2.3 switch=n enabled=y phases=3 Linecode=3P_OH_Code1
New Line.line_75611439_3104088_3102259 Units=km Length=0.024299999237060547 bus1=3102259.1.2.3 bus2=3104088.1.2.3 switch=n enabled=y phases=3 Linecode=3P_OH_Code4
New Line.line_75611524_3102521_3102219 Units=km Length=0.054 bus1=3102219.1.2.3 bus2=3102521.1.2.3 switch=n enabled=y phases=3 Linecode=3P_OH_Code4
New Line.line_75611608_3104483_3102413 Units=km Length=0.023700000762939454 bus1=3102413.1.2.3 bus2=3104483.1.2.3 switch=n enabled=y phases=3 Linecode=3P_OH_Code1
New Line.line_75611630_3103957_3102434 Units=km Length=0.03129999923706055 bus1=3102434.2 bus2=3103957.2 switch=n enabled=y phases=1 Linecode=1P_Code0
New Line.line_75611702_3103182_3102500 Units=km Length=0.044299999237060544 bus1=3102500.1.2.3 bus2=3103182.1.2.3 switch=n enabled=y phases=3 Linecode=3P_OH_Code8
New Line.line_75611789_3103692_3102579 Units=km Length=0.04040000152587891 bus1=3102579.1.2.3 bus2=3103692.1.2.3 switch=n enabled=y phases=3 Linecode=3P_OH_Code1
New Line.line_75611803_3104761_3102591 Units=km Length=0.028700000762939454 bus1=3102591.2 bus2=3104761.2 switch=n enabled=y phases=1 Linecode=1P_Code0
New Line.line_75611804_3104762_3102592 Units=km Length=0.023700000762939454 bus1=3102592.1.2.3 bus2=3104762.1.2.3 switch=n enabled=y phases=3 Linecode=3P_Code12
New Line.line_75611805_3103108_3102593 Units=km Length=0.018700000762939453 bus1=3102593.3 bus2=3103108.3 switch=n enabled=y phases=1 Linecode=1P_Code0
New Line.line_75611813_3103513_3102601 Units=km Length=0.049 bus1=3102601.1.2.3 bus2=3103513.1.2.3 switch=n enabled=y phases=3 Linecode=3P_Code2
New Line.line_75611879_3103777_3102259 Units=km Length=0.011699999809265137 bus1=3102259.1.2.3 bus2=3103777.1.2.3 switch=n enabled=y phases=3 Linecode=3P_OH_Code1
New Line.line_75611882_3103354_3102231 Units=km Length=0.013899999618530274 bus1=3102231.2 bus2=3103354.2 switch=n enabled=y phases=1 Linecode=1P_Code0
New Line.line_75611897_3102579_3102413 Units=km Length=0.04990000152587891 bus1=3102413.1.2.3 bus2=3102579.1.2.3 switch=n enabled=y phases=3 Linecode=3P_OH_Code1
New Line.line_75611924_3102601_3102684 Units=km Length=0.0285 bus1=3102684.1.2.3 bus2=3102601.1.2.3 switch=n enabled=y phases=3 Linecode=3P_Code2
New Line.line_75612281_3104899_3102973 Units=km Length=0.0125 bus1=3102973.2 bus2=3104899.2 switch=n enabled=y phases=1 Linecode=1P_Code0
New Line.line_75612329_3104937_3102973 Units=km Length=0.014199999809265137 bus1=3102973.2 bus2=3104937.2 switch=n enabled=y phases=1 Linecode=1P_Code0
New Line.line_75612423_3105012_3102434 Units=km Length=0.018000000000000002 bus1=3102434.1 bus2=3105012.1 switch=n enabled=y phases=1 Linecode=1P_Code0
New Line.line_75612424_3105013_3103081 Units=km Length=0.013199999809265136 bus1=3103081.2 bus2=3105013.2 switch=n enabled=y phases=1 Linecode=1P_Code0
New Line.line_75612425_3105013_3103081 Units=km Length=0.013199999809265136 bus1=3103081.2 bus2=3105013.2 switch=n enabled=y phases=1 Linecode=1P_Code0
New Line.line_75612463_3105036_3103108 Units=km Length=0.021700000762939455 bus1=3103108.3 bus2=3105036.3 switch=n enabled=y phases=1 Linecode=1P_Code0
New Line.line_75612464_3105037_3103109 Units=km Length=0.0185 bus1=3103109.1 bus2=3105037.1 switch=n enabled=y phases=1 Linecode=1P_Code0
New Line.line_75612465_3105038_3102259 Units=km Length=0.018899999618530273 bus1=3102259.3 bus2=3105038.3 switch=n enabled=y phases=1 Linecode=1P_Code0
New Line.line_75612466_3105039_3103110 Units=km Length=0.017 bus1=3103110.2 bus2=3105039.2 switch=n enabled=y phases=1 Linecode=1P_Code0
New Line.line_75612508_3105072_3102579 Units=km Length=0.029200000762939455 bus1=3102579.3 bus2=3105072.3 switch=n enabled=y phases=1 Linecode=1P_Code0
New Line.line_75612580_3105126_3103182 Units=km Length=0.023 bus1=3103182.1 bus2=3105126.1 switch=n enabled=y phases=1 Linecode=1P_Code0
New Line.line_75612631_3105168_3102521 Units=km Length=0.014199999809265137 bus1=3102521.2 bus2=3105168.2 switch=n enabled=y phases=1 Linecode=1P_Code0
New Line.line_75612638_3105174_3102579 Units=km Length=0.024899999618530275 bus1=3102579.1 bus2=3105174.1 switch=n enabled=y phases=1 Linecode=1P_Code0
New Line.line_75612846_3105347_3102219 Units=km Length=0.027600000381469727 bus1=3102219.2 bus2=3105347.2 switch=n enabled=y phases=1 Linecode=1P_Code0
New Line.line_75612847_3105347_3102219 Units=km Length=0.027600000381469727 bus1=3102219.2 bus2=3105347.2 switch=n enabled=y phases=1 Linecode=1P_Code0
New Line.line_75612848_3105348_3103344 Units=km Length=0.0125 bus1=3103344.3 bus2=3105348.3 switch=n enabled=y phases=1 Linecode=1P_Code0
New Line.line_75612849_3105349_3103345 Units=km Length=0.008300000190734864 bus1=3103345.3 bus2=3105349.3 switch=n enabled=y phases=1 Linecode=1P_Code0
New Line.line_75612866_3105366_3102591 Units=km Length=0.034 bus1=3102591.3 bus2=3105366.3 switch=n enabled=y phases=1 Linecode=1P_Code0
New Line.line_75612867_3105367_3103108 Units=km Length=0.018000000000000002 bus1=3103108.3 bus2=3105367.3 switch=n enabled=y phases=1 Linecode=1P_Code0
New Line.line_75612868_3105368_3103353 Units=km Length=0.0235 bus1=3103353.1 bus2=3105368.1 switch=n enabled=y phases=1 Linecode=1P_OH_Code14
New Line.line_75612869_3105369_3103109 Units=km Length=0.018799999237060546 bus1=3103109.1 bus2=3105369.1 switch=n enabled=y phases=1 Linecode=1P_Code0
New Line.line_75612870_3105370_3103354 Units=km Length=0.016299999237060547 bus1=3103354.2 bus2=3105370.2 switch=n enabled=y phases=1 Linecode=1P_Code0
New Line.line_75612871_3105371_3103110 Units=km Length=0.024100000381469727 bus1=3103110.2 bus2=3105371.2 switch=n enabled=y phases=1 Linecode=1P_Code0
New Line.line_75613144_3102592_3103513 Units=km Length=0.0315 bus1=3103513.1.2.3 bus2=3102592.1.2.3 switch=n enabled=y phases=3 Linecode=3P_Code2
New Line.line_75613238_3105655_3102579 Units=km Length=0.027700000762939454 bus1=3102579.1 bus2=3105655.1 switch=n enabled=y phases=1 Linecode=1P_Code0
New Line.line_75613244_3105659_3103110 Units=km Length=0.0275 bus1=3103110.2 bus2=3105659.2 switch=n enabled=y phases=1 Linecode=1P_Code0
New Line.line_75613328_3102579_3103618 Units=km Length=0.020899999618530275 bus1=3103618.2 bus2=3102579.2 switch=n enabled=y phases=1 Linecode=1P_Code0
New Line.line_75613468_3105782_3103677 Units=km Length=0.018700000762939453 bus1=3103677.2 bus2=3105782.2 switch=n enabled=y phases=1 Linecode=1P_Code0
New Line.line_75613487_3104477_3103182 Units=km Length=0.04559999847412109 bus1=3103182.1.2.3 bus2=3104477.1.2.3 switch=n enabled=y phases=3 Linecode=3P_OH_Code1
New Line.line_75613505_3105801_3103692 Units=km Length=0.023899999618530274 bus1=3103692.3 bus2=3105801.3 switch=n enabled=y phases=1 Linecode=1P_Code0
New Line.line_75613566_3103850_3103692 Units=km Length=0.06020000076293945 bus1=3103692.1.2.3 bus2=3103850.1.2.3 switch=n enabled=y phases=3 Linecode=3P_OH_Code1
New Line.line_75613569_3105826_3102521 Units=km Length=0.019399999618530273 bus1=3102521.1.3 bus2=3105826.1.3 switch=n enabled=y phases=2 Linecode=2P_Code7
New Line.line_75613591_3103110_3103677 Units=km Length=0.030200000762939452 bus1=3103677.2 bus2=3103110.2 switch=n enabled=y phases=1 Linecode=1P_Code0
New Line.line_75613620_3102434_3102591 Units=km Length=0.055200000762939454 bus1=3102591.1.2.3 bus2=3102434.1.2.3 switch=n enabled=y phases=3 Linecode=3P_OH_Code4
New Line.line_75613664_3105838_3102592 Units=km Length=0.05479999923706055 bus1=3102592.1 bus2=3105838.1 switch=n enabled=y phases=1 Linecode=1P_Code3
New Line.line_75613679_3102231_3103777 Units=km Length=0.05629999923706055 bus1=3103777.1.2.3 bus2=3102231.1.2.3 switch=n enabled=y phases=3 Linecode=3P_OH_Code1
New Line.line_75613709_3103344_3103791 Units=km Length=0.020799999237060548 bus1=3103791.1.2.3 bus2=3103344.1.2.3 switch=n enabled=y phases=3 Linecode=3P_Code12
New Line.line_75613802_3104004_3103830 Units=km Length=0.0525 bus1=3103830.1.2.3 bus2=3104004.1.2.3 switch=n enabled=y phases=3 Linecode=3P_OH_Code4
New Line.line_75613843_3105907_3103850 Units=km Length=0.022700000762939453 bus1=3103850.1 bus2=3105907.1 switch=n enabled=y phases=1 Linecode=1P_Code0
New Line.line_75613895_3105940_3102231 Units=km Length=0.025899999618530276 bus1=3102231.1 bus2=3105940.1 switch=n enabled=y phases=1 Linecode=1P_Code0
New Line.line_75613910_3105947_3103692 Units=km Length=0.019200000762939453 bus1=3103692.2 bus2=3105947.2 switch=n enabled=y phases=1 Linecode=1P_Code0
New Line.line_75614104_3106053_3103957 Units=km Length=0.016799999237060548 bus1=3103957.2 bus2=3106053.2 switch=n enabled=y phases=1 Linecode=1P_Code0
New Line.line_75614124_3106067_3103777 Units=km Length=0.026899999618530273 bus1=3103777.3 bus2=3106067.3 switch=n enabled=y phases=1 Linecode=1P_Code0
New Line.line_75614167_3103353_3102593 Units=km Length=0.04879999923706055 bus1=3102593.1 bus2=3103353.1 switch=n enabled=y phases=1 Linecode=1P_OH_Code14
New Line.line_75614215_3106121_3103081 Units=km Length=0.012100000381469727 bus1=3103081.2 bus2=3106121.2 switch=n enabled=y phases=1 Linecode=1P_Code0
New Line.line_75614216_3106121_3103081 Units=km Length=0.012100000381469727 bus1=3103081.2 bus2=3106121.2 switch=n enabled=y phases=1 Linecode=1P_Code0
New Line.line_75614217_3106122_3102593 Units=km Length=0.013100000381469726 bus1=3102593.2 bus2=3106122.2 switch=n enabled=y phases=1 Linecode=1P_Code0
New Line.line_75614229_3106129_3102500 Units=km Length=0.020899999618530275 bus1=3102500.3 bus2=3106129.3 switch=n enabled=y phases=1 Linecode=1P_Code5
New Line.line_75614232_3106132_3104004 Units=km Length=0.011 bus1=3104004.1 bus2=3106132.1 switch=n enabled=y phases=1 Linecode=1P_Code0
New Line.line_75614378_3106205_3103513 Units=km Length=0.024299999237060547 bus1=3103513.1.2 bus2=3106205.1.2 switch=n enabled=y phases=2 Linecode=2P_Code7
New Line.line_75614400_3106217_3103677 Units=km Length=0.0115 bus1=3103677.1 bus2=3106217.1 switch=n enabled=y phases=1 Linecode=1P_Code0
New Line.line_75614410_3106223_3104078 Units=km Length=0.0185 bus1=3104078.3 bus2=3106223.3 switch=n enabled=y phases=1 Linecode=1P_Code0
New Line.line_75614411_3106223_3104078 Units=km Length=0.0185 bus1=3104078.3 bus2=3106223.3 switch=n enabled=y phases=1 Linecode=1P_Code0
New Line.line_75614414_3103081_3104078 Units=km Length=0.04040000152587891 bus1=3104078.1.2.3 bus2=3103081.1.2.3 switch=n enabled=y phases=3 Linecode=3P_Code11
New Line.line_75614431_3106229_3104088 Units=km Length=0.017100000381469728 bus1=3104088.1 bus2=3106229.1 switch=n enabled=y phases=1 Linecode=1P_Code5
New Line.line_75614503_3106260_3102231 Units=km Length=0.021500000000000002 bus1=3102231.3 bus2=3106260.3 switch=n enabled=y phases=1 Linecode=1P_Code0
New Line.line_75614504_3106261_3103354 Units=km Length=0.018399999618530272 bus1=3103354.2 bus2=3106261.2 switch=n enabled=y phases=1 Linecode=1P_Code0
New Line.line_75614526_3104259_3102434 Units=km Length=0.026399999618530273 bus1=3102434.1.2.3 bus2=3104259.1.2.3 switch=n enabled=y phases=3 Linecode=3P_Code2
New Line.line_75614591_3106310_3104154 Units=km Length=0.021399999618530275 bus1=3104154.2 bus2=3106310.2 switch=n enabled=y phases=1 Linecode=1P_Code0
New Line.line_75614643_3102259_3103850 Units=km Length=0.044 bus1=3103850.1.2.3 bus2=3102259.1.2.3 switch=n enabled=y phases=3 Linecode=3P_OH_Code1
New Line.line_75614654_3106349_3104178 Units=km Length=0.021200000762939455 bus1=3104178.2 bus2=3106349.2 switch=n enabled=y phases=1 Linecode=1P_Code5
New Line.line_75614714_3106382_3103791 Units=km Length=0.017700000762939455 bus1=3103791.1 bus2=3106382.1 switch=n enabled=y phases=1 Linecode=1P_Code0
New Line.line_75614867_3106461_3103692 Units=km Length=0.028 bus1=3103692.1 bus2=3106461.1 switch=n enabled=y phases=1 Linecode=1P_Code0
New Line.line_75614915_3106486_3104259 Units=km Length=0.010600000381469727 bus1=3104259.1 bus2=3106486.1 switch=n enabled=y phases=1 Linecode=1P_Code5
New Line.line_75614957_3103345_3103791 Units=km Length=0.025899999618530276 bus1=3103791.1.2.3 bus2=3103345.1.2.3 switch=n enabled=y phases=3 Linecode=3P_Code2
New Line.line_75614974_3106518_3104004 Units=km Length=0.025700000762939455 bus1=3104004.3 bus2=3106518.3 switch=n enabled=y phases=1 Linecode=1P_Code0
New Line.line_75614999_3106527_3103110 Units=km Length=0.017100000381469728 bus1=3103110.2 bus2=3106527.2 switch=n enabled=y phases=1 Linecode=1P_Code0
New Line.line_75615017_3106535_3104296 Units=km Length=0.02160000038146973 bus1=3104296.1 bus2=3106535.1 switch=n enabled=y phases=1 Linecode=1P_Code0
New Line.line_75615024_3102973_3104259 Units=km Length=0.027899999618530274 bus1=3104259.1.2.3 bus2=3102973.1.2.3 switch=n enabled=y phases=3 Linecode=3P_Code2
New Line.line_75615028_3106541_3103345 Units=km Length=0.010899999618530274 bus1=3103345.2 bus2=3106541.2 switch=n enabled=y phases=1 Linecode=1P_Code0
New Line.line_75615043_3104296_3103677 Units=km Length=0.017100000381469728 bus1=3103677.1 bus2=3104296.1 switch=n enabled=y phases=1 Linecode=1P_Code0
New Line.line_75615244_3106640_3102601 Units=km Length=0.012800000190734864 bus1=3102601.2 bus2=3106640.2 switch=n enabled=y phases=1 Linecode=1P_Code5
New Line.line_75615255_3106644_3103344 Units=km Length=0.0125 bus1=3103344.1 bus2=3106644.1 switch=n enabled=y phases=1 Linecode=1P_Code0
New Line.line_75615279_3106659_3103791 Units=km Length=0.018700000762939453 bus1=3103791.1.2.3 bus2=3106659.1.2.3 switch=n enabled=y phases=3 Linecode=3P_Code2
New Line.line_75615339_3106688_3103345 Units=km Length=0.033200000762939455 bus1=3103345.1.2.3 bus2=3106688.1.2.3 switch=n enabled=y phases=3 Linecode=3P_Code2
New Line.line_75615369_3106702_3102219 Units=km Length=0.022899999618530273 bus1=3102219.3 bus2=3106702.3 switch=n enabled=y phases=1 Linecode=1P_Code0
New Line.line_75615370_3106703_3102219 Units=km Length=0.025100000381469728 bus1=3102219.1 bus2=3106703.1 switch=n enabled=y phases=1 Linecode=1P_Code0
New Line.line_75615414_3104078_3102684 Units=km Length=0.039700000762939454 bus1=3102684.1.2.3 bus2=3104078.1.2.3 switch=n enabled=y phases=3 Linecode=3P_Code11
New Line.line_75615480_3106753_3104154 Units=km Length=0.024899999618530275 bus1=3104154.2 bus2=3106753.2 switch=n enabled=y phases=1 Linecode=1P_Code0
New Line.line_75615531_3102413_3104477 Units=km Length=0.007300000190734864 bus1=3104477.1.2.3 bus2=3102413.1.2.3 switch=n enabled=y phases=3 Linecode=3P_OH_Code1
New Line.line_75615546_3104178_3102434 Units=km Length=0.056099998474121095 bus1=3102434.1.2.3 bus2=3104178.1.2.3 switch=n enabled=y phases=3 Linecode=3P_Code2
New Line.line_75615547_3102593_3104178 Units=km Length=0.03479999923706055 bus1=3104178.1.2.3 bus2=3102593.1.2.3 switch=n enabled=y phases=3 Linecode=3P_Code2
New Line.line_75615548_3104154_3102593 Units=km Length=0.04459999847412109 bus1=3102593.1.2.3 bus2=3104154.1.2.3 switch=n enabled=y phases=3 Linecode=3P_Code2
New Line.line_75615549_3106779_3104483 Units=km Length=0.045400001525878905 bus1=3104483.1.2.3 bus2=3106779.1.2.3 switch=n enabled=y phases=3 Linecode=3P_OH_Code1
New Line.line_75615604_3102684_3102973 Units=km Length=0.016899999618530274 bus1=3102973.1.2.3 bus2=3102684.1.2.3 switch=n enabled=y phases=3 Linecode=3P_Code2
New Line.line_75615654_3106831_3103692 Units=km Length=0.025500000000000002 bus1=3103692.3 bus2=3106831.3 switch=n enabled=y phases=1 Linecode=1P_Code0
New Line.line_75615746_3106867_3102684 Units=km Length=0.011800000190734863 bus1=3102684.3 bus2=3106867.3 switch=n enabled=y phases=1 Linecode=1P_Code5
New Line.line_75615769_3104548_3104004 Units=km Length=0.04940000152587891 bus1=3104004.1.2.3 bus2=3104548.1.2.3 switch=n enabled=y phases=3 Linecode=3P_OH_Code4
New Line.line_75615770_3102591_3104548 Units=km Length=0.009100000381469726 bus1=3104548.1.2.3 bus2=3102591.1.2.3 switch=n enabled=y phases=3 Linecode=3P_OH_Code4
New Line.line_75615869_3106607_3104594 Units=km Length=0.037 bus1=3104594.1.2.3 bus2=3106607.1.2.3 switch=n enabled=y phases=3 Linecode=3P_Code2
New Line.line_75615873_3103109_3104597 Units=km Length=0.012199999809265137 bus1=3104597.1 bus2=3103109.1 switch=n enabled=y phases=1 Linecode=1P_Code0
New Line.line_75615874_3106926_3104597 Units=km Length=0.013300000190734863 bus1=3104597.3 bus2=3106926.3 switch=n enabled=y phases=1 Linecode=1P_Code0
New Line.line_75615875_3102259_3104597 Units=km Length=0.05879999923706055 bus1=3104597.1.2.3 bus2=3102259.1.2.3 switch=n enabled=y phases=3 Linecode=3P_OH_Code1
New Line.line_75615876_3104597_3104154 Units=km Length=0.037799999237060546 bus1=3104154.1.2.3 bus2=3104597.1.2.3 switch=n enabled=y phases=3 Linecode=3P_Code2
New Line.line_75615956_3102521_3104594 Units=km Length=0.030799999237060546 bus1=3104594.1.2.3 bus2=3102521.1.2.3 switch=n enabled=y phases=3 Linecode=3P_OH_Code1
New Line.line_75615957_3106779_3104594 Units=km Length=0.030100000381469726 bus1=3104594.1.2.3 bus2=3106779.1.2.3 switch=n enabled=y phases=3 Linecode=3P_OH_Code1
New Line.line_75615969_3106971_3104634 Units=km Length=0.0115 bus1=3104634.2 bus2=3106971.2 switch=n enabled=y phases=1 Linecode=1P_Code0
New Line.line_75615970_3104634_3103182 Units=km Length=0.018399999618530272 bus1=3103182.2 bus2=3104634.2 switch=n enabled=y phases=1 Linecode=1P_Code0
New Line.line_75616000_3106990_3104483 Units=km Length=0.010699999809265138 bus1=3104483.1 bus2=3106990.1 switch=n enabled=y phases=1 Linecode=1P_Code0
New Line.line_75616026_3107008_3102219 Units=km Length=0.03279999923706055 bus1=3102219.1 bus2=3107008.1 switch=n enabled=y phases=1 Linecode=1P_Code0
New Line.line_75616027_3104653_3103830 Units=km Length=0.024200000762939454 bus1=3103830.1.2.3 bus2=3104653.1.2.3 switch=n enabled=y phases=3 Linecode=3P_OH_Code4
New Line.line_75616028_3107009_3104653 Units=km Length=0.0095 bus1=3104653.1.2.3 bus2=3107009.1.2.3 switch=n enabled=y phases=3 Linecode=3P_Code15
New Line.line_75616029_3107010_3104654 Units=km Length=0.010300000190734864 bus1=3104654.2 bus2=3107010.2 switch=n enabled=y phases=1 Linecode=1P_Code5
New Line.line_75616043_3104661_3103677 Units=km Length=0.03 bus1=3103677.1.2.3 bus2=3104661.1.2.3 switch=n enabled=y phases=3 Linecode=3P_OH_Code4
New Line.line_75624730_3107586_3107340 Units=km Length=0.014912547334291404 bus1=3107340.1.2.3 bus2=3107586.1.2.3 switch=n enabled=y phases=3 Linecode=3P_Code11
New Line.line_75625172_3108028_3105347 Units=km Length=0.0017085204853901452 bus1=3105347.2 bus2=3108028.2 switch=n enabled=y phases=1 Linecode=1P_Code3
New Line.line_75625173_3108029_3105168 Units=km Length=0.001339996355385961 bus1=3105168.2 bus2=3108029.2 switch=n enabled=y phases=1 Linecode=1P_Code3
New Line.line_75625177_3108033_3105126 Units=km Length=0.016592303787888982 bus1=3105126.1 bus2=3108033.1 switch=n enabled=y phases=1 Linecode=1P_Code3
New Line.line_75625205_3108061_3106053 Units=km Length=0.011514014441881383 bus1=3106053.2 bus2=3108061.2 switch=n enabled=y phases=1 Linecode=1P_Code3
New Line.line_75625206_3108062_3106223 Units=km Length=0.0028640073763169065 bus1=3106223.3 bus2=3108062.3 switch=n enabled=y phases=1 Linecode=1P_Code3
New Line.line_75625207_3108063_3106121 Units=km Length=0.0032163513491963963 bus1=3106121.2 bus2=3108063.2 switch=n enabled=y phases=1 Linecode=1P_Code3
New Line.line_75625208_3108064_3105013 Units=km Length=0.005102487359573745 bus1=3105013.2 bus2=3108064.2 switch=n enabled=y phases=1 Linecode=1P_Code3
New Line.line_75625209_3108065_3106053 Units=km Length=0.011514014441881383 bus1=3106053.2 bus2=3108065.2 switch=n enabled=y phases=1 Linecode=1P_Code3
New Line.line_75625218_3108074_3106926 Units=km Length=0.013099846420447881 bus1=3106926.3 bus2=3108074.3 switch=n enabled=y phases=1 Linecode=1P_Code3
New Line.line_75625219_3108075_3107391 Units=km Length=0.013456324256564806 bus1=3107391.1 bus2=3108075.1 switch=n enabled=y phases=1 Linecode=1P_Code3
New Line.line_75625220_3108076_3105366 Units=km Length=0.025532367234930044 bus1=3105366.3 bus2=3108076.3 switch=n enabled=y phases=1 Linecode=1P_Code3
New Line.line_75625221_3108077_3107009 Units=km Length=0.012638606591430526 bus1=3107009.2 bus2=3108077.2 switch=n enabled=y phases=1 Linecode=1P_Code3
New Line.line_75625222_3108078_3107009 Units=km Length=0.012638606591430526 bus1=3107009.3 bus2=3108078.3 switch=n enabled=y phases=1 Linecode=1P_Code3
New Line.line_75625223_3108079_3104661 Units=km Length=0.015813624410633546 bus1=3104661.1 bus2=3108079.1 switch=n enabled=y phases=1 Linecode=1P_Code3
New Line.line_75625230_3108086_3104761 Units=km Length=0.013119140301718627 bus1=3104761.2 bus2=3108086.2 switch=n enabled=y phases=1 Linecode=1P_Code3
New Line.line_75625231_3108087_3106688 Units=km Length=0.014805176597194152 bus1=3106688.2 bus2=3108087.2 switch=n enabled=y phases=1 Linecode=1P_Code3
New Line.line_75625232_3108088_3106688 Units=km Length=0.014805176597194152 bus1=3106688.2 bus2=3108088.2 switch=n enabled=y phases=1 Linecode=1P_Code3
New Line.line_75625233_3108089_3106688 Units=km Length=0.014805176597194152 bus1=3106688.3 bus2=3108089.3 switch=n enabled=y phases=1 Linecode=1P_Code3
New Line.line_75625234_3108090_3106688 Units=km Length=0.014805176597194152 bus1=3106688.3 bus2=3108090.3 switch=n enabled=y phases=1 Linecode=1P_Code3
New Line.line_75625280_3108136_3107391 Units=km Length=0.01848225575941178 bus1=3107391.2 bus2=3108136.2 switch=n enabled=y phases=1 Linecode=1P_Code3
New Line.line_75625284_3108140_3107391 Units=km Length=0.01848225575941178 bus1=3107391.2 bus2=3108140.2 switch=n enabled=y phases=1 Linecode=1P_Code3
New Line.line_75625287_3108143_3107391 Units=km Length=0.016070827954162994 bus1=3107391.2 bus2=3108143.2 switch=n enabled=y phases=1 Linecode=1P_Code3
New Line.line_75625289_3108145_3107391 Units=km Length=0.016070827954162994 bus1=3107391.2 bus2=3108145.2 switch=n enabled=y phases=1 Linecode=1P_Code3
New Line.line_75625304_3108160_3106229 Units=km Length=0.01661853724058107 bus1=3106229.1 bus2=3108160.1 switch=n enabled=y phases=1 Linecode=1P_Code3
New Line.line_75625306_3108162_3107391 Units=km Length=0.013456324256564806 bus1=3107391.1 bus2=3108162.1 switch=n enabled=y phases=1 Linecode=1P_Code3
New Line.line_75625352_3108208_3105036 Units=km Length=0.01376598874954476 bus1=3105036.3 bus2=3108208.3 switch=n enabled=y phases=1 Linecode=1P_Code3
New Line.line_75625353_3108209_3106753 Units=km Length=0.016738962751260824 bus1=3106753.2 bus2=3108209.2 switch=n enabled=y phases=1 Linecode=1P_Code3
New Line.line_75625354_3108210_3106753 Units=km Length=0.03468859953948575 bus1=3106753.2 bus2=3108210.2 switch=n enabled=y phases=1 Linecode=1P_Code3
New Line.line_75625359_3108215_3106205 Units=km Length=0.010331537425298886 bus1=3106205.2 bus2=3108215.2 switch=n enabled=y phases=1 Linecode=1P_Code3
New Line.line_75625364_3108220_3106779 Units=km Length=0.015532224567009067 bus1=3106779.1 bus2=3108220.1 switch=n enabled=y phases=1 Linecode=1P_Code3
New Line.line_75625365_3108221_3106205 Units=km Length=0.014541740836632098 bus1=3106205.1 bus2=3108221.1 switch=n enabled=y phases=1 Linecode=1P_Code3
New Line.line_75625368_3108224_3104762 Units=km Length=0.011809433909226851 bus1=3104762.3 bus2=3108224.3 switch=n enabled=y phases=1 Linecode=1P_Code3
New Line.line_75625375_3108231_3104762 Units=km Length=0.01378073297254557 bus1=3104762.2 bus2=3108231.2 switch=n enabled=y phases=1 Linecode=1P_Code3
New Line.line_75625386_3108242_3104762 Units=km Length=0.01696644618809824 bus1=3104762.2 bus2=3108242.2 switch=n enabled=y phases=1 Linecode=1P_Code3
New Line.line_75625400_3108256_3105366 Units=km Length=0.025532367234930044 bus1=3105366.3 bus2=3108256.3 switch=n enabled=y phases=1 Linecode=1P_Code3
New Line.line_75625428_3108284_3107340 Units=km Length=0.014912547334291404 bus1=3107340.2 bus2=3108284.2 switch=n enabled=y phases=1 Linecode=1P_Code3
New Line.line_75625536_3108392_3107448 Units=km Length=0.02831902413703963 bus1=3107448.1.2.3 bus2=3108392.1.2.3 switch=n enabled=y phases=3 Linecode=3P_Code11
New Line.line_75625568_3108424_3106703 Units=km Length=0.02339375509054861 bus1=3106703.1 bus2=3108424.1 switch=n enabled=y phases=1 Linecode=1P_Code3
New Line.line_75625569_3108425_3106703 Units=km Length=0.02339375509054861 bus1=3106703.1 bus2=3108425.1 switch=n enabled=y phases=1 Linecode=1P_Code3
New Line.line_75625578_3108434_3107462 Units=km Length=0.020429889653252774 bus1=3107462.1 bus2=3108434.1 switch=n enabled=y phases=1 Linecode=1P_Code3
New Line.line_75625591_3108447_3106461 Units=km Length=0.06717167234057157 bus1=3106461.1 bus2=3108447.1 switch=n enabled=y phases=1 Linecode=1P_Code3
New Line.line_75625594_3108450_3106461 Units=km Length=0.05216500004823692 bus1=3106461.1 bus2=3108450.1 switch=n enabled=y phases=1 Linecode=1P_Code3
New Line.line_75625596_3108452_3105801 Units=km Length=0.037689368384518356 bus1=3105801.3 bus2=3108452.3 switch=n enabled=y phases=1 Linecode=1P_Code3
New Line.line_75625597_3108453_3107462 Units=km Length=0.020429889653252774 bus1=3107462.3 bus2=3108453.3 switch=n enabled=y phases=1 Linecode=1P_Code3
New Line.line_75625605_3108461_3105371 Units=km Length=0.06950370209725591 bus1=3105371.2 bus2=3108461.2 switch=n enabled=y phases=1 Linecode=1P_Code3
New Line.line_75625612_3108468_3106461 Units=km Length=0.059326375471538566 bus1=3106461.1 bus2=3108468.1 switch=n enabled=y phases=1 Linecode=1P_Code3
New Line.line_75625613_3108469_3106461 Units=km Length=0.03942884155064803 bus1=3106461.1 bus2=3108469.1 switch=n enabled=y phases=1 Linecode=1P_Code3
New Line.line_75625615_3108471_3106461 Units=km Length=0.02372078316705379 bus1=3106461.1 bus2=3108471.1 switch=n enabled=y phases=1 Linecode=1P_Code3
New Line.line_75625652_3108508_3105168 Units=km Length=0.001339996355385961 bus1=3105168.2 bus2=3108508.2 switch=n enabled=y phases=1 Linecode=1P_Code3
New Line.line_75625678_3108534_3106122 Units=km Length=0.020434218728976432 bus1=3106122.2 bus2=3108534.2 switch=n enabled=y phases=1 Linecode=1P_Code3
New Line.line_75625691_3108547_3106640 Units=km Length=0.006212366316631869 bus1=3106640.2 bus2=3108547.2 switch=n enabled=y phases=1 Linecode=1P_Code3
New Line.line_75625705_3108561_3104078 Units=km Length=0.005424666994743513 bus1=3104078.1 bus2=3108561.1 switch=n enabled=y phases=1 Linecode=1P_Code3
New Line.line_75625707_3108563_3106129 Units=km Length=0.0746680804915199 bus1=3106129.3 bus2=3108563.3 switch=n enabled=y phases=1 Linecode=1P_Code3
New Line.line_75625761_3108617_3105947 Units=km Length=0.0025344660680622104 bus1=3105947.2 bus2=3108617.2 switch=n enabled=y phases=1 Linecode=1P_Code3
New Line.line_75625780_3108636_3107010 Units=km Length=0.0049053204022477 bus1=3107010.2 bus2=3108636.2 switch=n enabled=y phases=1 Linecode=1P_Code3
New Line.line_75625809_3108665_3106688 Units=km Length=0.014805176597194152 bus1=3106688.2 bus2=3108665.2 switch=n enabled=y phases=1 Linecode=1P_Code3
New Line.line_75625815_3108671_3105013 Units=km Length=0.02455985495212389 bus1=3105013.2 bus2=3108671.2 switch=n enabled=y phases=1 Linecode=1P_Code3
